6
   
H          0.00000        1.67189       -2.21256
C          0.00000        0.60529       -2.19956
C          0.00000       -0.60529       -2.19956
H          0.00000       -1.67189       -2.21256
Cl         0.00000        0.00000        0.61188
F          0.00000        0.00000        2.26865
