8
   
C          0.00000       -2.19285       -0.66839
C          0.00000       -2.19286        0.66839
H         -0.92519       -2.19232       -1.23398
H          0.92519       -2.19232       -1.23398
H         -0.92519       -2.19232        1.23398
H          0.92519       -2.19231        1.23398
F          0.00000        0.78569        0.00000
F          0.00000        2.20565        0.00000
