6
   
N          0.00000        0.00000       -2.14999
H          0.00000        0.93965       -2.53440
H          0.81376       -0.46983       -2.53440
H         -0.81376       -0.46983       -2.53440
F          0.00000        0.00000        0.54577
F          0.00000        0.00000        1.97124
